Version 4.1
SHEET 1 880 680
WIRE -48 16 -96 16
WIRE -96 144 -96 16
WIRE -96 144 -192 144
WIRE -64 144 -96 144
WIRE 32 160 32 16
WIRE 32 160 0 160
WIRE 80 160 32 160
WIRE 176 160 80 160
WIRE -64 176 -144 176
WIRE 80 176 80 160
WIRE -272 208 -272 144
WIRE 80 304 80 256
WIRE -144 384 -144 176
WIRE 80 384 80 368
WIRE 80 384 -144 384
WIRE 80 464 80 384
WIRE 80 464 -16 464
WIRE 176 464 80 464
WIRE 80 544 -16 544
WIRE 176 544 176 528
WIRE 176 544 80 544
FLAG -272 208 0
FLAG 80 544 0
SYMBOL OpAmps\\opamp -32 224 M180
SYMATTR InstName U1
SYMBOL res -176 128 R90
WINDOW 0 0 56 VBottom 2
WINDOW 3 32 56 VTop 2
SYMATTR InstName R1
SYMATTR Value 1k
SYMBOL res 48 0 R90
WINDOW 0 0 56 VBottom 2
WINDOW 3 32 56 VTop 2
SYMATTR InstName R2
SYMATTR Value 2k
SYMBOL res 64 160 R0
SYMATTR InstName R3
SYMATTR Value 1.5k
SYMBOL cap 64 304 R0
SYMATTR InstName C1
SYMATTR Value 0.1µ
SYMBOL cap 160 464 R0
SYMATTR InstName C2
SYMATTR Value 0.1µ
SYMBOL res -32 448 R0
SYMATTR InstName R4
SYMATTR Value 1.5k
TEXT 472 -256 Left 2 ;Harikesh OP\nS5 ECA \nROLL NO : 24
TEXT -384 -240 Left 2 !.inc opamp.sub
TEXT -384 -216 Left 2 !.tran 10ms
