Version 4
SHEET 1 880 680
WIRE 64 -16 -32 -16
WIRE 160 -16 144 -16
WIRE -32 64 -32 -16
WIRE -32 64 -48 64
WIRE -16 64 -32 64
WIRE 160 80 160 -16
WIRE 160 80 48 80
WIRE 192 80 160 80
WIRE 256 80 192 80
WIRE -16 96 -64 96
WIRE -64 224 -64 96
WIRE 192 224 -64 224
WIRE 192 288 192 224
WIRE 192 288 128 288
WIRE 256 288 192 288
WIRE 128 368 128 352
WIRE 192 368 128 368
WIRE 256 368 192 368
WIRE 192 416 192 368
FLAG -128 64 0
FLAG 192 416 0
SYMBOL OpAmps\\opamp 16 16 R0
WINDOW 0 27 37 Left 2
SYMATTR InstName U1
SYMBOL res -32 48 R90
WINDOW 0 0 56 VBottom 2
WINDOW 3 32 56 VTop 2
SYMATTR InstName R1
SYMATTR Value 1k
SYMBOL res 160 -32 R90
WINDOW 0 0 56 VBottom 2
WINDOW 3 32 56 VTop 2
SYMATTR InstName R2
SYMATTR Value 2k
SYMBOL res 176 64 R0
SYMATTR InstName R3
SYMATTR Value 1.6K
SYMBOL cap 176 160 R0
SYMATTR InstName C1
SYMATTR Value 0.1µ
SYMBOL res 240 272 R0
SYMATTR InstName R4
SYMATTR Value 1.6k
SYMBOL cap 112 288 R0
SYMATTR InstName C2
SYMATTR Value 0.1µ
TEXT 472 -256 Left 2 ;Harikesh OP\nS5 ECA \nROLL NO : 24
TEXT -384 -240 Left 2 !.inc opamp.sub
TEXT -384 -216 Left 2 !.tran 10ms
TEXT -384 -184 Left 2 !.lib opamp.sub
