Version 4
SHEET 1 880 680
WIRE 192 128 144 128
WIRE 320 144 256 144
WIRE 400 144 320 144
WIRE 192 160 144 160
WIRE 144 224 144 160
WIRE 320 224 144 224
WIRE 320 240 320 224
FLAG 320 320 0
FLAG 64 208 0
SYMBOL OpAmps\\opamp 224 80 R0
SYMATTR InstName U1
SYMBOL res 160 112 R90
WINDOW 0 0 56 VBottom 2
WINDOW 3 32 56 VTop 2
SYMATTR InstName R1
SYMATTR Value 1k
SYMBOL res 304 128 R0
SYMATTR InstName R2
SYMATTR Value 10k
SYMBOL res 304 224 R0
SYMATTR InstName R3
SYMATTR Value 2.2k
SYMBOL voltage 64 112 R0
WINDOW 3 -239 60 Left 2
WINDOW 123 0 0 Left 0
WINDOW 39 0 0 Left 0
SYMATTR InstName V1
SYMATTR Value SINE(0 10v 100)
TEXT -112 16 Left 2 !.inc opamp.sub
TEXT 416 0 Left 2 ;Harikesh OP\nS5 ECA \nROLL NO : 24
TEXT -176 344 Left 2 !.tran 10ms
