Version 4
SHEET 1 880 680
WIRE 272 48 112 48
WIRE 112 112 112 48
WIRE 160 112 112 112
WIRE 272 128 272 48
WIRE 272 128 224 128
WIRE 304 128 272 128
WIRE 160 144 128 144
FLAG 128 224 0
SYMBOL OpAmps\\opamp 192 64 R0
WINDOW 0 -11 99 Left 2
SYMATTR InstName U1
SYMBOL voltage 128 128 R0
WINDOW 123 0 0 Left 0
WINDOW 39 0 0 Left 0
WINDOW 0 -7 61 Left 2
WINDOW 3 -204 21 Left 2
SYMATTR InstName V1
SYMATTR Value SINE(0 1v 100)
TEXT -192 -48 Left 2 !.inc opamp.sub
TEXT 400 -48 Left 2 ;Harikesh OP\nS5 ECA \nROLL NO : 24
TEXT -192 296 Left 2 !.tran 20ms
