Version 4
SHEET 1 880 680
WIRE 160 112 144 112
WIRE 288 112 240 112
WIRE 144 192 144 112
WIRE 144 192 48 192
WIRE 176 192 144 192
WIRE 288 208 288 112
WIRE 288 208 240 208
WIRE 336 208 288 208
WIRE 176 224 144 224
WIRE 144 272 144 224
FLAG 144 272 0
FLAG -96 272 0
SYMBOL OpAmps\\opamp 208 144 R0
WINDOW 0 -11 99 Left 2
SYMATTR InstName U1
SYMBOL voltage -96 176 R0
WINDOW 123 0 0 Left 0
WINDOW 39 0 0 Left 0
WINDOW 0 -17 60 Left 2
WINDOW 3 -204 21 Left 2
SYMATTR InstName V1
SYMATTR Value SINE(0 1v 0.159k)
SYMBOL res 0 176 R90
WINDOW 0 0 56 VBottom 2
WINDOW 3 32 56 VTop 2
SYMATTR InstName R1
SYMATTR Value 1K
SYMBOL cap 48 176 R90
WINDOW 0 -4 35 VBottom 2
WINDOW 3 36 13 VTop 2
SYMATTR InstName C1
SYMATTR Value 0.1µ
SYMBOL res 256 96 R90
WINDOW 0 10 121 VBottom 2
WINDOW 3 3 -10 VTop 2
SYMATTR InstName R2
SYMATTR Value 10k
TEXT -304 56 Left 2 !.inc opamp.sub
TEXT 416 32 Left 2 ;Harikesh OP\nS5 ECA \nROLL NO : 24
TEXT -296 296 Left 2 !.tran 10ms
