Version 4
SHEET 1 880 680
WIRE 192 64 192 32
WIRE 192 64 176 64
WIRE 256 64 256 32
WIRE 272 64 256 64
WIRE 320 64 272 64
WIRE 192 96 192 64
WIRE 272 96 272 64
WIRE 176 144 176 64
WIRE 176 144 144 144
WIRE 208 144 176 144
WIRE 320 160 320 64
WIRE 320 160 272 160
WIRE 368 160 320 160
WIRE 208 176 176 176
WIRE 176 224 176 176
FLAG 176 224 0
FLAG 64 224 0
SYMBOL OpAmps\\opamp 240 96 R0
WINDOW 0 -11 99 Left 2
SYMATTR InstName U1
SYMBOL voltage 64 128 R0
WINDOW 123 0 0 Left 0
WINDOW 39 0 0 Left 0
WINDOW 0 -11 58 Left 2
WINDOW 3 -204 21 Left 2
SYMATTR InstName V1
SYMATTR Value SINE(0 1v 15.9k)
SYMBOL res 160 128 R90
WINDOW 0 0 56 VBottom 2
WINDOW 3 32 56 VTop 2
SYMATTR InstName R1
SYMATTR Value 1K
SYMBOL cap 256 16 R90
WINDOW 0 -4 35 VBottom 2
WINDOW 3 6 -19 VTop 2
SYMATTR InstName C1
SYMATTR Value 0.01µ
SYMBOL res 288 80 R90
WINDOW 0 10 121 VBottom 2
WINDOW 3 3 -10 VTop 2
SYMATTR InstName R2
SYMATTR Value 10k
TEXT -144 -16 Left 2 !.inc opamp.sub
TEXT 448 -16 Left 2 ;Harikesh OP\nS5 ECA \nROLL NO : 24
TEXT -144 328 Left 2 !.tran 1ms
