Version 4
SHEET 1 880 680
WIRE 320 -48 -160 -48
WIRE 64 0 0 0
WIRE 208 0 144 0
WIRE 320 0 320 -48
WIRE 320 0 288 0
WIRE 352 0 320 0
WIRE 368 48 224 48
WIRE 224 80 224 48
WIRE 224 80 0 80
WIRE 368 80 368 48
WIRE 432 80 432 0
WIRE 432 80 368 80
WIRE -160 176 -160 -48
WIRE 128 176 -160 176
WIRE 272 176 208 176
WIRE 464 192 336 192
WIRE 272 208 208 208
FLAG 576 384 0
FLAG 464 272 0
FLAG 128 288 0
FLAG 304 304 0
FLAG 304 80 0
SYMBOL voltage 128 192 R0
WINDOW 123 0 0 Left 0
WINDOW 39 0 0 Left 0
WINDOW 0 -10 62 Left 2
WINDOW 3 -250 39 Left 2
SYMATTR InstName V1
SYMATTR Value SINE(0 0.5v 100)
SYMBOL res 224 160 R90
WINDOW 0 0 56 VBottom 2
WINDOW 3 -27 22 VTop 2
SYMATTR InstName R1
SYMATTR Value 10k
SYMBOL res 224 192 R90
WINDOW 0 48 1 VBottom 2
WINDOW 3 51 19 VTop 2
SYMATTR InstName R2
SYMATTR Value 10k
SYMBOL res 448 176 R0
SYMATTR InstName R3
SYMATTR Value 22k
SYMBOL voltage 0 -16 R0
SYMATTR InstName V2
SYMATTR Value 15
SYMBOL res 160 -16 R90
WINDOW 0 0 56 VBottom 2
WINDOW 3 32 56 VTop 2
SYMATTR InstName R4
SYMATTR Value 15k
SYMBOL res 304 -16 R90
WINDOW 0 0 56 VBottom 2
WINDOW 3 32 56 VTop 2
SYMATTR InstName R5
SYMATTR Value 4.7k
SYMBOL res 448 -16 R90
WINDOW 0 0 56 VBottom 2
WINDOW 3 32 56 VTop 2
SYMATTR InstName R6
SYMATTR Value 2.2k
SYMBOL voltage 304 320 R180
WINDOW 123 0 0 Left 0
WINDOW 39 0 0 Left 0
SYMATTR InstName V3
SYMATTR Value 15
SYMBOL voltage 304 176 R180
WINDOW 123 0 0 Left 0
WINDOW 39 0 0 Left 0
SYMATTR InstName V4
SYMATTR Value 15
SYMBOL OpAmps\\LT1001 304 128 R0
SYMATTR InstName U2
TEXT -208 40 Left 2 !.inc opamp.sub
TEXT 512 16 Left 2 ;Harikesh OP\nS5 ECA \nROLL NO : 24
TEXT -240 288 Left 2 !.tran 100ms
TEXT -208 72 Left 2 !.lib opamp.sub
