Version 4
SHEET 1 880 680
SYMBOL OpAmps\\opamp 208 128 R0
SYMATTR InstName U1
TEXT -112 16 Left 2 !.inc opamp.sub
