Version 4
SHEET 1 880 680
WIRE 384 0 0 0
WIRE 384 80 384 0
WIRE 384 80 336 80
WIRE 400 80 384 80
WIRE 0 272 0 0
WIRE 112 272 0 272
FLAG 816 -80 0
FLAG 400 80 V1
SYMBOL Misc\\NE555 224 176 R0
SYMATTR InstName U1
SYMBOL voltage 816 -176 R0
WINDOW 123 0 0 Left 0
WINDOW 39 0 0 Left 0
SYMATTR InstName V1
SYMATTR Value 5
TEXT 104 312 Left 2 !.tran 100MS
